! Freq B3LYP def2-SVP

%freq
end

%FREQ TEMP 298.15, 295, 300, 400, 600, 800, 1000
END

* xyz -1 1
  C     -2.081149    3.357535    0.070010
  H     -1.011250    3.494910    0.226940
  Br    -3.002189    5.144508    0.572870
  H     -2.491174    2.590893    0.727584
  H     -2.314469    3.160217   -0.976345
  Cl    -0.787470    0.859747   -0.621070
*
