! Freq B3LYP def2-SVP

%freq
end

%FREQ TEMP 298.15, 295, 300, 400, 600, 800, 1000
END

* xyz -1 1
  C     -0.027956    0.053756    0.015029
  H      0.972687    0.401028    0.234994
  Br    -1.093451    2.116816    0.590424
  H     -0.557564   -0.534177    0.752687
  H     -0.373603    0.052253   -1.010033
  Cl     1.079888   -2.089676   -0.583100
*
