6
Coordinates from ORCA-job neb_MEP_ALL E -3073.635926742950
  C      -0.133199      0.256234      0.070012
  H       0.936700      0.393608      0.226942
  Br     -1.054239      2.043206      0.572872
  H      -0.543224     -0.510408      0.727586
  H      -0.366519      0.058915     -0.976343
  Cl      1.160480     -2.241555     -0.621068
6
Coordinates from ORCA-job neb_MEP_ALL E -3073.634792824832
  C      -0.093163      0.178869      0.049055
  H       0.963276      0.392601      0.229828
  Br     -1.081940      2.097505      0.587252
  H      -0.550377     -0.532550      0.741845
  H      -0.369583      0.049660     -1.001391
  Cl      1.131786     -2.186085     -0.606588
6
Coordinates from ORCA-job neb_MEP_ALL E -3073.632914606284
  C      -0.060834      0.116280      0.031675
  H       0.975758      0.395507      0.232294
  Br     -1.101001      2.134879      0.597425
  H      -0.555990     -0.541073      0.750416
  H      -0.372864      0.047931     -1.013828
  Cl      1.114931     -2.153523     -0.597982
6
Coordinates from ORCA-job neb_MEP_ALL E -3073.631913245333
  C      -0.026840      0.050511      0.013391
  H       0.982305      0.400016      0.234622
  Br     -1.118779      2.169661      0.606956
  H      -0.560915     -0.543879      0.756601
  H      -0.376292      0.049405     -1.020987
  Cl      1.100520     -2.125714     -0.590582
6
Coordinates from ORCA-job neb_MEP_ALL E -3073.632689538785
  C       0.009665     -0.020142     -0.006242
  H       0.983477      0.404799      0.236464
  Br     -1.135825      2.203040      0.616117
  H      -0.564428     -0.542258      0.759996
  H      -0.379145      0.052720     -1.023122
  Cl      1.086256     -2.098159     -0.583212
6
Coordinates from ORCA-job neb_MEP_ALL E -3073.635529596639
  C       0.039977     -0.078825     -0.022542
  H       0.982448      0.408198      0.237578
  Br     -1.148979      2.228807      0.623196
  H      -0.566349     -0.539664      0.761377
  H      -0.380900      0.055600     -1.022875
  Cl      1.073804     -2.074116     -0.576734
6
Coordinates from ORCA-job neb_MEP_ALL E -3073.640121549702
  C       0.092467     -0.180487     -0.050703
  H       0.977845      0.407203      0.237014
  Br     -1.177338      2.284423      0.638367
  H      -0.564241     -0.537134      0.758520
  H      -0.379485      0.055523     -1.018319
  Cl      1.050753     -2.029529     -0.564878
6
Coordinates from ORCA-job neb_MEP_ALL E -3073.645552988375
  C       0.132107     -0.257306     -0.071982
  H       0.969974      0.400151      0.234072
  Br     -1.202955      2.334696      0.652073
  H      -0.557126     -0.535552      0.750501
  H      -0.374090      0.051387     -1.009370
  Cl      1.032089     -1.993377     -0.555295
6
Coordinates from ORCA-job neb_MEP_ALL E -3073.650422559389
  C       0.164282     -0.319723     -0.089269
  H       0.958774      0.384796      0.228082
  Br     -1.233696      2.395022      0.668506
  H      -0.543476     -0.536310      0.736117
  H      -0.363344      0.041171     -0.995485
  Cl      1.017460     -1.964956     -0.547951
6
Coordinates from ORCA-job neb_MEP_ALL E -3073.652661055283
  C       0.186390     -0.363242     -0.101271
  H       0.944209      0.358019      0.218108
  Br     -1.275471      2.476989      0.690799
  H      -0.521066     -0.541301      0.713719
  H      -0.345321      0.022187     -0.976024
  Cl      1.011259     -1.952651     -0.545330
6
Coordinates from ORCA-job neb_MEP_ALL E -3073.635926742950
  C      -0.133199      0.256234      0.070012
  H       0.936700      0.393608      0.226942
  Br     -1.054239      2.043206      0.572872
  H      -0.543224     -0.510408      0.727586
  H      -0.366519      0.058915     -0.976343
  Cl      1.160480     -2.241555     -0.621068
6
Coordinates from ORCA-job neb_MEP_ALL E -3073.634489528029
  C      -0.086081      0.164387      0.044577
  H       0.964823      0.392314      0.230098
  Br     -1.080967      2.095596      0.586401
  H      -0.550538     -0.533755      0.742573
  H      -0.369393      0.048999     -1.001853
  Cl      1.122156     -2.167540     -0.601796
6
Coordinates from ORCA-job neb_MEP_ALL E -3073.632996242094
  C      -0.055306      0.104478      0.027967
  H       0.974247      0.396493      0.232612
  Br     -1.095721      2.124513      0.594314
  H      -0.556010     -0.538891      0.750010
  H      -0.372904      0.049228     -1.011541
  Cl      1.105694     -2.135820     -0.593363
6
Coordinates from ORCA-job neb_MEP_ALL E -3073.632382217389
  C      -0.024568      0.044780      0.011337
  H       0.978639      0.402472      0.235123
  Br     -1.108844      2.150124      0.601426
  H      -0.561211     -0.538928      0.755665
  H      -0.376825      0.052609     -1.016864
  Cl      1.092809     -2.111057     -0.586688
6
Coordinates from ORCA-job neb_MEP_ALL E -3073.633341192442
  C       0.006438     -0.015333     -0.005448
  H       0.978094      0.408683      0.237167
  Br     -1.119893      2.171743      0.607471
  H      -0.565138     -0.534959      0.758783
  H      -0.380234      0.057683     -1.017616
  Cl      1.080733     -2.087816     -0.580357
6
Coordinates from ORCA-job neb_MEP_ALL E -3073.635478068612
  C       0.033121     -0.066872     -0.019843
  H       0.975521      0.413262      0.238435
  Br     -1.128218      2.188036      0.612049
  H      -0.567413     -0.530375      0.759930
  H      -0.382455      0.062047     -1.016180
  Cl      1.069443     -2.066098     -0.574392
6
Coordinates from ORCA-job neb_MEP_ALL E -3073.641577207026
  C       0.094462     -0.185409     -0.052690
  H       0.966387      0.411668      0.237158
  Br     -1.157722      2.245948      0.627959
  H      -0.563596     -0.524694      0.754286
  H      -0.380033      0.062692     -1.007347
  Cl      1.040503     -2.010205     -0.559365
6
Coordinates from ORCA-job neb_MEP_ALL E -3073.647171161946
  C       0.136374     -0.266321     -0.074991
  H       0.957474      0.402128      0.233265
  Br     -1.185347      2.300222      0.642808
  H      -0.554564     -0.523879      0.744368
  H      -0.373099      0.056728     -0.997098
  Cl      1.019161     -1.968878     -0.548351
6
Coordinates from ORCA-job neb_MEP_ALL E -3073.651158940280
  C       0.166397     -0.324434     -0.090881
  H       0.948983      0.384368      0.226772
  Br     -1.221099      2.370452      0.661974
  H      -0.540138     -0.528370      0.730154
  H      -0.361447      0.043687     -0.985509
  Cl      1.007305     -1.945702     -0.542511
6
Coordinates from ORCA-job neb_MEP_ALL E -3073.652661055283
  C       0.186375     -0.363244     -0.101293
  H       0.944228      0.357979      0.218094
  Br     -1.275370      2.477000      0.690946
  H      -0.521060     -0.541315      0.713713
  H      -0.345352      0.022240     -0.976012
  Cl      1.011179     -1.952660     -0.545447
6
Coordinates from ORCA-job neb_MEP_ALL E -3073.635926742950
  C      -0.133199      0.256234      0.070012
  H       0.936700      0.393608      0.226942
  Br     -1.054239      2.043206      0.572872
  H      -0.543224     -0.510408      0.727586
  H      -0.366519      0.058915     -0.976343
  Cl      1.160480     -2.241555     -0.621068
6
Coordinates from ORCA-job neb_MEP_ALL E -3073.634346989200
  C      -0.082512      0.164473      0.049836
  H       0.957636      0.389651      0.228454
  Br     -1.072262      2.078103      0.580911
  H      -0.547472     -0.530437      0.738170
  H      -0.368345      0.048070     -1.000085
  Cl      1.112956     -2.149861     -0.597284
6
Coordinates from ORCA-job neb_MEP_ALL E -3073.633173670138
  C      -0.045628      0.096702      0.030671
  H       0.966328      0.395918      0.231566
  Br     -1.086981      2.106515      0.588661
  H      -0.555022     -0.534728      0.747508
  H      -0.373475      0.050353     -1.010685
  Cl      1.094779     -2.114761     -0.587721
6
Coordinates from ORCA-job neb_MEP_ALL E -3073.632818221916
  C      -0.018260      0.046921      0.016796
  H       0.967687      0.401387      0.233530
  Br     -1.096522      2.124674      0.593691
  H      -0.559825     -0.533224      0.752189
  H      -0.377322      0.054591     -1.014196
  Cl      1.084242     -2.094349     -0.582010
6
Coordinates from ORCA-job neb_MEP_ALL E -3073.633647620942
  C       0.005123      0.003433      0.004972
  H       0.967738      0.406173      0.235102
  Br     -1.104101      2.139043      0.597668
  H      -0.563491     -0.530601      0.755337
  H      -0.380568      0.058848     -1.016003
  Cl      1.075300     -2.076896     -0.577076
6
Coordinates from ORCA-job neb_MEP_ALL E -3073.635382909269
  C       0.033480     -0.052625     -0.010459
  H       0.966340      0.412920      0.237149
  Br     -1.112303      2.154639      0.602010
  H      -0.567285     -0.525105      0.757874
  H      -0.384204      0.065001     -1.015729
  Cl      1.063972     -2.054830     -0.570845
6
Coordinates from ORCA-job neb_MEP_ALL E -3073.642663226176
  C       0.092455     -0.169925     -0.043880
  H       0.953850      0.416761      0.237151
  Br     -1.132106      2.192775      0.612507
  H      -0.565426     -0.512491      0.752393
  H      -0.383877      0.071556     -1.002969
  Cl      1.035103     -1.998676     -0.555202
6
Coordinates from ORCA-job neb_MEP_ALL E -3073.648609430184
  C       0.145635     -0.276149     -0.074529
  H       0.937163      0.404988      0.231758
  Br     -1.165466      2.257932      0.630279
  H      -0.551794     -0.506487      0.736180
  H      -0.373449      0.065429     -0.982817
  Cl      1.007912     -1.945714     -0.540870
6
Coordinates from ORCA-job neb_MEP_ALL E -3073.651784201061
  C       0.173869     -0.332506     -0.091335
  H       0.932165      0.383807      0.224644
  Br     -1.211503      2.348284      0.654873
  H      -0.535887     -0.515955      0.721872
  H      -0.359592      0.047955     -0.972480
  Cl      1.000948     -1.931585     -0.537573
6
Coordinates from ORCA-job neb_MEP_ALL E -3073.652661055283
  C       0.186592     -0.363187     -0.101097
  H       0.943975      0.358534      0.218278
  Br     -1.276847      2.476613      0.689605
  H      -0.521028     -0.541314      0.713737
  H      -0.345035      0.021707     -0.976136
  Cl      1.012343     -1.952353     -0.544388
6
Coordinates from ORCA-job neb_MEP_ALL E -3073.635926742950
  C      -0.133199      0.256234      0.070012
  H       0.936700      0.393608      0.226942
  Br     -1.054239      2.043206      0.572872
  H      -0.543224     -0.510408      0.727586
  H      -0.366519      0.058915     -0.976343
  Cl      1.160480     -2.241555     -0.621068
6
Coordinates from ORCA-job neb_MEP_ALL E -3073.634473176865
  C      -0.085679      0.164192      0.044975
  H       0.960576      0.390248      0.229168
  Br     -1.071897      2.077619      0.580952
  H      -0.547979     -0.531376      0.739379
  H      -0.367526      0.048390     -0.997330
  Cl      1.112504     -2.149073     -0.597145
6
Coordinates from ORCA-job neb_MEP_ALL E -3073.633196871478
  C      -0.051398      0.097073      0.026194
  H       0.969818      0.396679      0.232366
  Br     -1.086198      2.105523      0.588680
  H      -0.554773     -0.534880      0.747795
  H      -0.372166      0.050534     -1.007069
  Cl      1.094716     -2.114929     -0.587965
6
Coordinates from ORCA-job neb_MEP_ALL E -3073.632891483234
  C      -0.024911      0.045185      0.011628
  H       0.972350      0.402764      0.234648
  Br     -1.095978      2.124473      0.594027
  H      -0.559403     -0.533156      0.752336
  H      -0.375846      0.054726     -1.010435
  Cl      1.083788     -2.093992     -0.582204
6
Coordinates from ORCA-job neb_MEP_ALL E -3073.633289559042
  C      -0.002031      0.000561     -0.000886
  H       0.972622      0.407840      0.236351
  Br     -1.103648      2.139350      0.598245
  H      -0.562790     -0.530285      0.755192
  H      -0.378751      0.058854     -1.011609
  Cl      1.074597     -2.076319     -0.577293
6
Coordinates from ORCA-job neb_MEP_ALL E -3073.634834944879
  C       0.026759     -0.054535     -0.016251
  H       0.970056      0.413941      0.238087
  Br     -1.111896      2.155419      0.602845
  H      -0.566181     -0.524875      0.757298
  H      -0.381903      0.064469     -1.010759
  Cl      1.063165     -2.054419     -0.571220
6
Coordinates from ORCA-job neb_MEP_ALL E -3073.641567688976
  C       0.085377     -0.166749     -0.047184
  H       0.956895      0.417388      0.237851
  Br     -1.130835      2.192500      0.613300
  H      -0.564739     -0.512940      0.752301
  H      -0.382036      0.070656     -0.999781
  Cl      1.035338     -2.000855     -0.556487
6
Coordinates from ORCA-job neb_MEP_ALL E -3073.649247543218
  C       0.142329     -0.276547     -0.077447
  H       0.938756      0.405658      0.232247
  Br     -1.164177      2.257998      0.631352
  H      -0.551524     -0.506276      0.736157
  H      -0.372472      0.065316     -0.980544
  Cl      1.007088     -1.946149     -0.541765
6
Coordinates from ORCA-job neb_MEP_ALL E -3073.651932938233
  C       0.171233     -0.332860     -0.093003
  H       0.933371      0.384180      0.224931
  Br     -1.210545      2.349217      0.656253
  H      -0.535502     -0.515764      0.721598
  H      -0.359038      0.048021     -0.971019
  Cl      1.000480     -1.932794     -0.538760
6
Coordinates from ORCA-job neb_MEP_ALL E -3073.652661055283
  C       0.186394     -0.363238     -0.101281
  H       0.944207      0.358026      0.218108
  Br     -1.275496      2.476957      0.690867
  H      -0.521052     -0.541323      0.713712
  H      -0.345331      0.022205     -0.976021
  Cl      1.011278     -1.952626     -0.545384
