6
Coordinates from ORCA-job neb_NEB-CI_converged E -3073.633059429869
  C          -0.02491124010628      0.04518476907494      0.01162830460275
  H           0.97235030818590      0.40276379448748      0.23464769607442
  Br         -1.09597766449219      2.12447281753191      0.59402743149317
  H          -0.55940315067726     -0.53315592322112      0.75233588858480
  H          -0.37584579201798      0.05472633667429     -1.01043547799373
  Cl          1.08378753910781     -2.09399179454751     -0.58220384276142
