6
Coordinates from ORCA-job neb E -3073.633059435461
  C      -0.024911      0.045185      0.011628
  H       0.972350      0.402764      0.234648
  Br     -1.095978      2.124473      0.594027
  H      -0.559403     -0.533156      0.752336
  H      -0.375846      0.054726     -1.010435
  Cl      1.083788     -2.093992     -0.582204
6
Coordinates from ORCA-job neb E -3073.633048528122
  C      -0.023979      0.054727      0.019939
  H       0.973825      0.407822      0.242008
  Br     -1.099425      2.113385      0.581448
  H      -0.553540     -0.531951      0.758555
  H      -0.366026      0.047643     -1.006431
  Cl      1.069145     -2.091626     -0.595518
6
Coordinates from ORCA-job neb E -3073.633061506348
  C      -0.028661      0.051899      0.013354
  H       0.971736      0.399740      0.233421
  Br     -1.090433      2.116453      0.592300
  H      -0.559219     -0.534342      0.751602
  H      -0.375842      0.053497     -1.010982
  Cl      1.082418     -2.087247     -0.579695
6
Coordinates from ORCA-job neb E -3073.633062490206
  C      -0.027519      0.054005      0.014420
  H       0.972785      0.401937      0.234508
  Br     -1.094420      2.116785      0.591599
  H      -0.556603     -0.534617      0.751857
  H      -0.373244      0.052971     -1.010584
  Cl      1.079001     -2.091080     -0.581800
6
Coordinates from ORCA-job neb E -3073.633057495123
  C      -0.030416      0.051691      0.017648
  H       0.971256      0.396395      0.237248
  Br     -1.089160      2.120305      0.585871
  H      -0.562420     -0.532171      0.756708
  H      -0.375437      0.048253     -1.007642
  Cl      1.086177     -2.084473     -0.589833
6
Coordinates from ORCA-job neb E -3073.633062797723
  C      -0.027956      0.053756      0.015029
  H       0.972687      0.401028      0.234994
  Br     -1.093451      2.116816      0.590424
  H      -0.557564     -0.534177      0.752687
  H      -0.373603      0.052253     -1.010033
  Cl      1.079888     -2.089676     -0.583100
6
Coordinates from ORCA-job neb E -3073.633062806204
  C      -0.027985      0.053832      0.015072
  H       0.972747      0.400885      0.234966
  Br     -1.093509      2.116924      0.590416
  H      -0.557597     -0.534177      0.752671
  H      -0.373663      0.052277     -1.009997
  Cl      1.080008     -2.089741     -0.583128
