6
Coordinates from ORCA-job product_opt E -3073.652669594782
  C          -3.01246964210668      1.36070805923135     -0.07678321814026
  H          -1.96377980598071      1.53615903912221     -0.33364375373760
  Br         -1.27068492192333     -1.36617259984377      0.52457655743313
  H          -3.40982596024913      0.54242003503032     -0.68417225344803
  H          -3.09598408590304      1.10897767700396      0.98440603925804
  Cl         -3.98375558383705      2.89251778945592     -0.41439337136527
